test/data/r5_12_47_3/node.glm
// $Id: R5-12.47-3.glm 
// 13.8 kV feeder 
//********************************************* 
clock{ 
     timezone EST+8EDT; 
     timestamp '2000-01-01 0:00:00'; 
     stoptime '2000-01-01 0:00:01'; 

} 

#set profiler=1 
//#set savefile="R5-12.47-3_FBS.xml"
//********************************************* 
// modules 
module tape; 
module powerflow{ 
     solver_method NR; 
      default_maximum_voltage_error 1e-6;
}; 

//********************************************* 
object regulator:1 { 
     name R5-12-47-3_reg_1; 
     from R5-12-47-3_node_1469; 
     to R5-12-47-3_meter_183; 
     phases ABCN; 
     configuration feeder_reg_cfg; 
} 

//object regulator:2 { 
//     name R5-12-47-3_reg_2; 
//     from R5-12-47-3_node_487_2; 
//     to R5-12-47-3_node_488; 
//     phases ABCN; 
//     configuration voltage_reg1_cfg; 
//} 

object regulator:2 { 
     name R5-12-47-3_reg_2; 
     from R5-12-47-3_node_294_2; 
     to R5-12-47-3_node_294; 
     phases ABCN; 
     configuration voltage_reg1_cfg; 
}


object regulator:3 { 
     name R5-12-47-3_reg_3; 
     from R5-12-47-3_node_334_2; 
     to R5-12-47-3_node_1273; 
     phases ABCN; 
     configuration voltage_reg2_cfg;
} 

object regulator:4 { 
     name R5-12-47-3_reg_4; 
     from R5-12-47-3_node_974_2; 
     to R5-12-47-3_node_974; 
     phases ABCN; 
     configuration voltage_reg3_cfg;
}

object regulator_configuration:9657 { 
     name feeder_reg_cfg; 
     Control OUTPUT_VOLTAGE; 
     band_center 8300; 
     band_width 132; 
     connect_type WYE_WYE; 
     time_delay 30; 
     raise_taps 16; 
     lower_taps 16; 
     regulation 0.10; 
     tap_pos_A 0; 
     tap_pos_B 0; 
     tap_pos_C 0; 
} 

object regulator_configuration:9990 { 
     name voltage_reg1_cfg; 
     Control OUTPUT_VOLTAGE; 
     band_center 8250; 
     band_width 131; 
     connect_type WYE_WYE; 
     time_delay 30; 
     raise_taps 16; 
     lower_taps 16; 
     regulation 0.10; 
     tap_pos_A 0; 
     tap_pos_B 0; 
     tap_pos_C 0; 
} 

object regulator_configuration:9980 { 
     name voltage_reg2_cfg; 
     Control OUTPUT_VOLTAGE; 
     band_center 8300; 
     band_width 132; 
     connect_type WYE_WYE; 
     time_delay 30; 
     raise_taps 16; 
     lower_taps 16; 
     regulation 0.10; 
     tap_pos_A 0; 
     tap_pos_B 0; 
     tap_pos_C 0; 
} 

object regulator_configuration { 
     name voltage_reg3_cfg; 
     Control OUTPUT_VOLTAGE; 
     band_center 8250; 
     band_width 131; 
     connect_type WYE_WYE; 
     time_delay 30; 
     raise_taps 16; 
     lower_taps 16; 
     regulation 0.10; 
     tap_pos_A 0; 
     tap_pos_B 0; 
     tap_pos_C 0; 
} 



object capacitor:9652 { 
     name R5-12-47-3_cap_1; 
     phases ABCN; 
     pt_phase B; 
     parent R5-12-47-3_node_126; 
     phases_connected ABC; 
     control VOLT; 
     voltage_set_high 7300; 
     voltage_set_low 7025; 
     capacitor_A 0.2 MVAr; 
     capacitor_B 0.2 MVAr; 
     capacitor_C 0.2 MVAr; 
     control_level INDIVIDUAL; 
     time_delay 30.0; 
     dwell_time 30.0; 
     cap_nominal_voltage 7970; 
     nominal_voltage 7967.43;  
} 

object capacitor:9653 { 
     name R5-12-47-3_cap_2; 
     phases ABCN; 
     pt_phase B; 
     parent R5-12-47-3_node_127; 
     phases_connected ABC; 
     control VOLT; 
     voltage_set_high 7300; 
     voltage_set_low 7050; 
     capacitor_A 0.2 MVAr; 
     capacitor_B 0.2 MVAr; 
     capacitor_C 0.2 MVAr; 
     control_level INDIVIDUAL; 
     time_delay 30.0; 
     dwell_time 30.0; 
     cap_nominal_voltage 7970; 
     nominal_voltage 7967.43; 
} 



object capacitor { 
     name R5-12-47-3_cap_3; 
     phases BN; 
     pt_phase B; 
     parent R5-12-47-3_node_393; 
     phases_connected B; 
     control MANUAL; 
     capacitor_A 0.3 MVAr; 
     capacitor_B 0.3 MVAr; 
     capacitor_C 0.3 MVAr; 
     control_level INDIVIDUAL; 
     time_delay 30.0; 
     dwell_time 30.0; 
     cap_nominal_voltage 7970; 
     nominal_voltage 7967.43;
     switchA CLOSED;
     switchB CLOSED;
     switchC CLOSED;
}

object capacitor { 
     name R5-12-47-3_cap_4; 
     phases BN; 
     pt_phase B; 
     parent R5-12-47-3_node_563; 
     phases_connected B; 
     control MANUAL; 
     capacitor_A 0.15 MVAr; 
     capacitor_B 0.15 MVAr; 
     capacitor_C 0.15 MVAr; 
     control_level INDIVIDUAL; 
     time_delay 30.0; 
     dwell_time 30.0; 
     cap_nominal_voltage 7970; 
     nominal_voltage 7967.43;
     switchA CLOSED;
     switchB CLOSED;
     switchC CLOSED;
}

object capacitor { 
     name R5-12-47-3_cap_5; 
     phases ABCN; 
     pt_phase B; 
     parent R5-12-47-3_node_754; 
     phases_connected ABC; 
     control MANUAL; 
     capacitor_A 0.15 MVAr; 
     capacitor_B 0.15 MVAr; 
     capacitor_C 0.15 MVAr; 
     control_level INDIVIDUAL; 
     time_delay 30.0; 
     dwell_time 30.0; 
     cap_nominal_voltage 7970; 
     nominal_voltage 7967.43;
     switchA CLOSED;
     switchB CLOSED;
     switchC CLOSED;
}

object capacitor { 
     name R5-12-47-3_cap_6; 
     phases BN; 
     pt_phase B; 
     parent R5-12-47-3_node_332; 
     phases_connected B; 
     control MANUAL; 
     capacitor_A 0.05 MVAr; 
     capacitor_B 0.05 MVAr; 
     capacitor_C 0.05 MVAr; 
     control_level INDIVIDUAL; 
     time_delay 30.0; 
     dwell_time 30.0; 
     cap_nominal_voltage 7970; 
     nominal_voltage 7967.43;
     switchA CLOSED;
     switchB CLOSED;
     switchC CLOSED;
}

object capacitor { 
     name R5-12-47-3_cap_7; 
     phases BN; 
     pt_phase B; 
     parent R5-12-47-3_node_970; 
     phases_connected B; 
     control MANUAL; 
     capacitor_A 0.15 MVAr; 
     capacitor_B 0.15 MVAr; 
     capacitor_C 0.15 MVAr; 
     control_level INDIVIDUAL; 
     time_delay 30.0; 
     dwell_time 30.0; 
     cap_nominal_voltage 7970; 
     nominal_voltage 7967.43;
     switchA CLOSED;
     switchB CLOSED;
     switchC CLOSED;
}

object capacitor { 
     name R5-12-47-3_cap_8; 
     phases BN; 
     pt_phase B; 
     parent R5-12-47-3_node_1456; 
     phases_connected B; 
     control MANUAL; 
     capacitor_A 0.05 MVAr; 
     capacitor_B 0.05 MVAr; 
     capacitor_C 0.05 MVAr; 
     control_level INDIVIDUAL; 
     time_delay 30.0; 
     dwell_time 30.0; 
     cap_nominal_voltage 7970; 
     nominal_voltage 7967.43;
     switchA CLOSED;
     switchB CLOSED;
     switchC CLOSED;
}

object capacitor { 
     name R5-12-47-3_cap_9; 
     phases BN; 
     pt_phase B; 
     parent R5-12-47-3_node_273; 
     phases_connected B; 
     control MANUAL; 
     capacitor_A 0.05 MVAr; 
     capacitor_B 0.05 MVAr; 
     capacitor_C 0.05 MVAr; 
     control_level INDIVIDUAL; 
     time_delay 30.0; 
     dwell_time 30.0; 
     cap_nominal_voltage 7970; 
     nominal_voltage 7967.43;
     switchA CLOSED;
     switchB CLOSED;
     switchC CLOSED;
}

object capacitor { 
     name R5-12-47-3_cap_10; 
     phases BN; 
     pt_phase B; 
     parent R5-12-47-3_node_206; 
     phases_connected B; 
     control MANUAL; 
     capacitor_A 0.05 MVAr; 
     capacitor_B 0.05 MVAr; 
     capacitor_C 0.05 MVAr; 
     control_level INDIVIDUAL; 
     time_delay 30.0; 
     dwell_time 30.0; 
     cap_nominal_voltage 7970; 
     nominal_voltage 7967.43;
     switchA CLOSED;
     switchB CLOSED;
     switchC CLOSED;
}

object capacitor { 
     name R5-12-47-3_cap_11; 
     phases CN; 
     pt_phase C; 
     parent R5-12-47-3_node_1373; 
     phases_connected C; 
     control MANUAL; 
     capacitor_A 0.05 MVAr; 
     capacitor_B 0.05 MVAr; 
     capacitor_C 0.05 MVAr; 
     control_level INDIVIDUAL; 
     time_delay 30.0; 
     dwell_time 30.0; 
     cap_nominal_voltage 7970; 
     nominal_voltage 7967.43;
     switchA CLOSED;
     switchB CLOSED;
     switchC CLOSED;
}

object capacitor { 
     name R5-12-47-3_cap_12; 
     phases BN; 
     pt_phase B; 
     parent R5-12-47-3_node_271; 
     phases_connected B; 
     control MANUAL; 
     capacitor_A 0.05 MVAr; 
     capacitor_B 0.05 MVAr; 
     capacitor_C 0.05 MVAr; 
     control_level INDIVIDUAL; 
     time_delay 30.0; 
     dwell_time 30.0; 
     cap_nominal_voltage 7970; 
     nominal_voltage 7967.43;
     switchA CLOSED;
     switchB CLOSED;
     switchC CLOSED;
}

object capacitor { 
     name R5-12-47-3_cap_13; 
     phases CN; 
     pt_phase C; 
     parent R5-12-47-3_node_1365; 
     phases_connected C; 
     control MANUAL; 
     capacitor_A 0.05 MVAr; 
     capacitor_B 0.05 MVAr; 
     capacitor_C 0.05 MVAr; 
     control_level INDIVIDUAL; 
     time_delay 30.0; 
     dwell_time 30.0; 
     cap_nominal_voltage 7970; 
     nominal_voltage 7967.43;
     switchA CLOSED;
     switchB CLOSED;
     switchC CLOSED;
}

object fuse:9438 { 
     name R5-12-47-3_fuse_1; 
     phases AN; 
     from R5-12-47-3_node_688; 
     to R5-12-47-3_node_11; 
     mean_replacement_time 2; 
     current_limit 50000;// 50; 
     status CLOSED; 
} 

object fuse:9439 { 
     name R5-12-47-3_fuse_2; 
     phases CN; 
     from R5-12-47-3_node_528; 
     to R5-12-47-3_node_37; 
     mean_replacement_time 2; 
     current_limit 50000;// 30; 
     status CLOSED; 
} 

object fuse:9440 { 
     name R5-12-47-3_fuse_3; 
     phases CN; 
     from R5-12-47-3_node_1178; 
     to R5-12-47-3_node_40; 
     mean_replacement_time 2; 
     current_limit 50000;// 50; 
     status CLOSED; 
} 

object fuse:9441 { 
     name R5-12-47-3_fuse_4; 
     phases CN; 
     from R5-12-47-3_node_1160; 
     to R5-12-47-3_node_64; 
     mean_replacement_time 2; 
     current_limit 50000;// 50; 
     status CLOSED; 
} 

object fuse:9442 { 
     name R5-12-47-3_fuse_5; 
     phases CN; 
     from R5-12-47-3_node_1209; 
     to R5-12-47-3_node_67; 
     mean_replacement_time 2; 
     current_limit 50000;// 30; 
     status CLOSED; 
} 

object fuse:9443 { 
     name R5-12-47-3_fuse_6; 
     phases CN; 
     from R5-12-47-3_node_158; 
     to R5-12-47-3_node_69; 
     mean_replacement_time 2; 
     current_limit 50000;// 30; 
     status CLOSED; 
} 

object fuse:9444 { 
     name R5-12-47-3_fuse_7; 
     phases CN; 
     from R5-12-47-3_node_747; 
     to R5-12-47-3_node_80; 
     mean_replacement_time 2; 
     current_limit 50000;// 50; 
     status CLOSED; 
} 

object fuse:9445 { 
     name R5-12-47-3_fuse_8; 
     phases BN; 
     from R5-12-47-3_node_208; 
     to R5-12-47-3_node_84; 
     mean_replacement_time 2; 
     current_limit 50000;// 20; 
     status CLOSED; 
} 

object fuse:9446 { 
     name R5-12-47-3_fuse_9; 
     phases AN; 
     from R5-12-47-3_node_667; 
     to R5-12-47-3_node_102; 
     mean_replacement_time 2; 
     current_limit 50000;// 50; 
     status CLOSED; 
} 

object fuse:9447 { 
     name R5-12-47-3_fuse_10; 
     phases ABCN; 
     from R5-12-47-3_node_803; 
     to R5-12-47-3_node_103; 
     mean_replacement_time 2; 
     current_limit 50000;// 50; 
     status CLOSED; 
} 

object fuse:9448 { 
     name R5-12-47-3_fuse_11; 
     phases AN; 
     from R5-12-47-3_node_922; 
     to R5-12-47-3_node_104; 
     mean_replacement_time 2; 
     current_limit 50000;// 50; 
     status CLOSED; 
} 

object fuse:9449 { 
     name R5-12-47-3_fuse_12; 
     phases CN; 
     from R5-12-47-3_node_981; 
     to R5-12-47-3_node_105; 
     mean_replacement_time 2; 
     current_limit 50000;// 50; 
     status CLOSED; 
} 

object fuse:9450 { 
     name R5-12-47-3_fuse_13; 
     phases BN; 
     from R5-12-47-3_node_1009; 
     to R5-12-47-3_node_106; 
     mean_replacement_time 2; 
     current_limit 50000;// 50; 
     status CLOSED; 
} 

object fuse:9451 { 
     name R5-12-47-3_fuse_14; 
     phases AN; 
     from R5-12-47-3_node_852; 
     to R5-12-47-3_node_107; 
     mean_replacement_time 2; 
     current_limit 50000;// 50; 
     status CLOSED; 
} 

object fuse:9452 { 
     name R5-12-47-3_fuse_15; 
     phases CN; 
     from R5-12-47-3_node_939; 
     to R5-12-47-3_node_108; 
     mean_replacement_time 2; 
     current_limit 50000;// 50; 
     status CLOSED; 
} 

object fuse:9453 { 
     name R5-12-47-3_fuse_16; 
     phases BN; 
     from R5-12-47-3_node_1081; 
     to R5-12-47-3_node_109; 
     mean_replacement_time 2; 
     current_limit 50000;// 50; 
     status CLOSED; 
} 

object fuse:9454 { 
     name R5-12-47-3_fuse_17; 
     phases BN; 
     from R5-12-47-3_node_1105; 
     to R5-12-47-3_node_110; 
     mean_replacement_time 2; 
     current_limit 50000;// 15; 
     status CLOSED; 
} 

object fuse:9455 { 
     name R5-12-47-3_fuse_18; 
     phases CN; 
     from R5-12-47-3_node_1133; 
     to R5-12-47-3_node_111; 
     mean_replacement_time 2; 
     current_limit 50000;// 50; 
     status CLOSED; 
} 

object fuse:9456 { 
     name R5-12-47-3_fuse_19; 
     phases CN; 
     from R5-12-47-3_node_1144; 
     to R5-12-47-3_node_112; 
     mean_replacement_time 2; 
     current_limit 50000;// 50; 
     status CLOSED; 
} 

object fuse:9457 { 
     name R5-12-47-3_fuse_20; 
     phases BN; 
     from R5-12-47-3_node_1091; 
     to R5-12-47-3_node_113; 
     mean_replacement_time 2; 
     current_limit 50000;// 50; 
     status CLOSED; 
} 

object fuse:9458 { 
     name R5-12-47-3_fuse_21; 
     phases BN; 
     from R5-12-47-3_node_1155; 
     to R5-12-47-3_node_114; 
     mean_replacement_time 2; 
     current_limit 50000;// 50; 
     status CLOSED; 
} 

object fuse:9459 { 
     name R5-12-47-3_fuse_22; 
     phases AN; 
     from R5-12-47-3_node_1197; 
     to R5-12-47-3_node_116; 
     mean_replacement_time 2; 
     current_limit 50000;// 50; 
     status CLOSED; 
} 

object fuse:9460 { 
     name R5-12-47-3_fuse_23; 
     phases AN; 
     from R5-12-47-3_node_1225; 
     to R5-12-47-3_node_117; 
     mean_replacement_time 2; 
     current_limit 50000;// 50; 
     status CLOSED; 
} 

object fuse:9461 { 
     name R5-12-47-3_fuse_24; 
     phases AN; 
     from R5-12-47-3_node_1227; 
     to R5-12-47-3_node_118; 
     mean_replacement_time 2; 
     current_limit 50000;// 20; 
     status CLOSED; 
} 

object fuse:9462 { 
     name R5-12-47-3_fuse_25; 
     phases AN; 
     from R5-12-47-3_node_539; 
     to R5-12-47-3_node_119; 
     mean_replacement_time 2; 
     current_limit 50000;// 30; 
     status CLOSED; 
} 

object fuse:9463 { 
     name R5-12-47-3_fuse_26; 
     phases CN; 
     from R5-12-47-3_node_1235; 
     to R5-12-47-3_node_120; 
     mean_replacement_time 2; 
     current_limit 50000;// 50; 
     status CLOSED; 
} 

object fuse:9464 { 
     name R5-12-47-3_fuse_27; 
     phases CN; 
     from R5-12-47-3_node_1236; 
     to R5-12-47-3_node_121; 
     mean_replacement_time 2; 
     current_limit 50000;// 30; 
     status CLOSED; 
} 

object fuse:9465 { 
     name R5-12-47-3_fuse_28; 
     phases BN; 
     from R5-12-47-3_node_1252; 
     to R5-12-47-3_node_122; 
     mean_replacement_time 2; 
     current_limit 50000;// 50; 
     status CLOSED; 
} 

object fuse:9466 { 
     name R5-12-47-3_fuse_29; 
     phases BN; 
     from R5-12-47-3_node_1218; 
     to R5-12-47-3_node_123; 
     mean_replacement_time 2; 
     current_limit 50000;// 50; 
     status CLOSED; 
} 

object fuse:9467 { 
     name R5-12-47-3_fuse_30; 
     phases CN; 
     from R5-12-47-3_node_1153; 
     to R5-12-47-3_node_134; 
     mean_replacement_time 2; 
     current_limit 50000;// 50; 
     status CLOSED; 
} 

object fuse:9468 { 
     name R5-12-47-3_fuse_31; 
     phases CN; 
     from R5-12-47-3_node_141; 
     to R5-12-47-3_node_140; 
     mean_replacement_time 2; 
     current_limit 50000;// 20; 
     status CLOSED; 
} 

object fuse:9469 { 
     name R5-12-47-3_fuse_32; 
     phases BN; 
     from R5-12-47-3_node_144; 
     to R5-12-47-3_node_143; 
     mean_replacement_time 2; 
     current_limit 50000;// 30; 
     status CLOSED; 
} 

object fuse:9470 { 
     name R5-12-47-3_fuse_33; 
     phases CN; 
     from R5-12-47-3_node_145; 
     to R5-12-47-3_node_146; 
     mean_replacement_time 2; 
     current_limit 50000;// 50; 
     status CLOSED; 
} 

object fuse:9471 { 
     name R5-12-47-3_fuse_34; 
     phases CN; 
     from R5-12-47-3_node_1216; 
     to R5-12-47-3_node_150; 
     mean_replacement_time 2; 
     current_limit 50000;// 50; 
     status CLOSED; 
} 

object fuse:9472 { 
     name R5-12-47-3_fuse_35; 
     phases BN; 
     from R5-12-47-3_node_155; 
     to R5-12-47-3_node_156; 
     mean_replacement_time 2; 
     current_limit 50000;// 30; 
     status CLOSED; 
} 

object fuse:9473 { 
     name R5-12-47-3_fuse_36; 
     phases AN; 
     from R5-12-47-3_node_159; 
     to R5-12-47-3_node_160; 
     mean_replacement_time 2; 
     current_limit 50000;// 50; 
     status CLOSED; 
} 

object fuse:9474 { 
     name R5-12-47-3_fuse_37; 
     phases ABCN; 
     from R5-12-47-3_node_161; 
     to R5-12-47-3_node_162; 
     mean_replacement_time 2; 
     current_limit 50000;// 50; 
     status CLOSED; 
} 

object fuse:9475 { 
     name R5-12-47-3_fuse_38; 
     phases BN; 
     from R5-12-47-3_node_165; 
     to R5-12-47-3_node_163; 
     mean_replacement_time 2; 
     current_limit 50000;// 50; 
     status CLOSED; 
} 

object fuse:9476 { 
     name R5-12-47-3_fuse_39; 
     phases BN; 
     from R5-12-47-3_node_164; 
     to R5-12-47-3_node_166; 
     mean_replacement_time 2; 
     current_limit 50000;// 50; 
     status CLOSED; 
} 

object fuse:9477 { 
     name R5-12-47-3_fuse_40; 
     phases AN; 
     from R5-12-47-3_node_172; 
     to R5-12-47-3_node_173; 
     mean_replacement_time 2; 
     current_limit 50000;// 50; 
     status CLOSED; 
} 

object fuse:9478 { 
     name R5-12-47-3_fuse_41; 
     phases AN; 
     from R5-12-47-3_node_927; 
     to R5-12-47-3_node_174; 
     mean_replacement_time 2; 
     current_limit 50000;// 50; 
     status CLOSED; 
} 

object fuse:9479 { 
     name R5-12-47-3_fuse_42; 
     phases BN; 
     from R5-12-47-3_node_169; 
     to R5-12-47-3_node_178; 
     mean_replacement_time 2; 
     current_limit 50000;// 30; 
     status CLOSED; 
} 

object fuse:9480 { 
     name R5-12-47-3_fuse_43; 
     phases BN; 
     from R5-12-47-3_node_183; 
     to R5-12-47-3_node_181; 
     mean_replacement_time 2; 
     current_limit 50000;// 30; 
     status CLOSED; 
} 

object fuse:9481 { 
     name R5-12-47-3_fuse_44; 
     phases BN; 
     from R5-12-47-3_node_1003; 
     to R5-12-47-3_node_187; 
     mean_replacement_time 2; 
     current_limit 50000;// 50; 
     status CLOSED; 
} 

object fuse:9482 { 
     name R5-12-47-3_fuse_45; 
     phases BN; 
     from R5-12-47-3_node_187; 
     to R5-12-47-3_node_188; 
     mean_replacement_time 2; 
     current_limit 50000;// 30; 
     status CLOSED; 
} 

object fuse:9483 { 
     name R5-12-47-3_fuse_46; 
     phases CN; 
     from R5-12-47-3_node_193; 
     to R5-12-47-3_node_192; 
     mean_replacement_time 2; 
     current_limit 50000;// 30; 
     status CLOSED; 
} 

object fuse:9484 { 
     name R5-12-47-3_fuse_47; 
     phases CN; 
     from R5-12-47-3_node_176; 
     to R5-12-47-3_node_193; 
     mean_replacement_time 2; 
     current_limit 50000;// 30; 
     status CLOSED; 
} 

object fuse:9485 { 
     name R5-12-47-3_fuse_48; 
     phases BN; 
     from R5-12-47-3_node_199; 
     to R5-12-47-3_node_198; 
     mean_replacement_time 2; 
     current_limit 50000;// 30; 
     status CLOSED; 
} 

object fuse:9486 { 
     name R5-12-47-3_fuse_49; 
     phases BN; 
     from R5-12-47-3_node_190; 
     to R5-12-47-3_node_199; 
     mean_replacement_time 2; 
     current_limit 50000;// 50; 
     status CLOSED; 
} 

object fuse:9487 { 
     name R5-12-47-3_fuse_50; 
     phases BN; 
     from R5-12-47-3_node_815; 
     to R5-12-47-3_node_201; 
     mean_replacement_time 2; 
     current_limit 50000;// 30; 
     status CLOSED; 
} 

object fuse:9488 { 
     name R5-12-47-3_fuse_51; 
     phases BN; 
     from R5-12-47-3_node_202; 
     to R5-12-47-3_node_204; 
     mean_replacement_time 2; 
     current_limit 50000;// 30; 
     status CLOSED; 
} 

object fuse:9489 { 
     name R5-12-47-3_fuse_52; 
     phases AN; 
     from R5-12-47-3_node_1113; 
     to R5-12-47-3_node_210; 
     mean_replacement_time 2; 
     current_limit 50000;// 50; 
     status CLOSED; 
} 

object fuse:9490 { 
     name R5-12-47-3_fuse_53; 
     phases AN; 
     from R5-12-47-3_node_222; 
     to R5-12-47-3_node_221; 
     mean_replacement_time 2; 
     current_limit 50000;// 30; 
     status CLOSED; 
} 

object fuse:9491 { 
     name R5-12-47-3_fuse_54; 
     phases BN; 
     from R5-12-47-3_node_490; 
     to R5-12-47-3_node_229; 
     mean_replacement_time 2; 
     current_limit 50000;// 50; 
     status CLOSED; 
} 

object fuse:9492 { 
     name R5-12-47-3_fuse_55; 
     phases BN; 
     from R5-12-47-3_node_506; 
     to R5-12-47-3_node_233; 
     mean_replacement_time 2; 
     current_limit 50000;// 50; 
     status CLOSED; 
} 

object fuse:9493 { 
     name R5-12-47-3_fuse_56; 
     phases AN; 
     from R5-12-47-3_node_240; 
     to R5-12-47-3_node_239; 
     mean_replacement_time 2; 
     current_limit 50000;// 30; 
     status CLOSED; 
} 

object fuse:9494 { 
     name R5-12-47-3_fuse_57; 
     phases BN; 
     from R5-12-47-3_node_206; 
     to R5-12-47-3_node_243; 
     mean_replacement_time 2; 
     current_limit 50000;// 20; 
     status CLOSED; 
} 

object fuse:9495 { 
     name R5-12-47-3_fuse_58; 
     phases BN; 
     from R5-12-47-3_node_246; 
     to R5-12-47-3_node_244; 
     mean_replacement_time 2; 
     current_limit 50000;// 30; 
     status CLOSED; 
} 

object fuse:9496 { 
     name R5-12-47-3_fuse_59; 
     phases CN; 
     from R5-12-47-3_node_871; 
     to R5-12-47-3_node_255; 
     mean_replacement_time 2; 
     current_limit 50000;// 50; 
     status CLOSED; 
} 

object fuse:9497 { 
     name R5-12-47-3_fuse_60; 
     phases BN; 
     from R5-12-47-3_node_219; 
     to R5-12-47-3_node_258; 
     mean_replacement_time 2; 
     current_limit 50000;// 50; 
     status CLOSED; 
} 

object fuse:9498 { 
     name R5-12-47-3_fuse_61; 
     phases BN; 
     from R5-12-47-3_node_263; 
     to R5-12-47-3_node_273; 
     mean_replacement_time 2; 
     current_limit 50000;// 50; 
     status CLOSED; 
} 

object fuse:9499 { 
     name R5-12-47-3_fuse_62; 
     phases BN; 
     from R5-12-47-3_node_271; 
     to R5-12-47-3_node_275; 
     mean_replacement_time 2; 
     current_limit 50000;// 50; 
     status CLOSED; 
} 

object fuse:9500 { 
     name R5-12-47-3_fuse_63; 
     phases BN; 
     from R5-12-47-3_node_285; 
     to R5-12-47-3_node_286; 
     mean_replacement_time 2; 
     current_limit 50000;// 50; 
     status CLOSED; 
} 

object fuse:9501 { 
     name R5-12-47-3_fuse_64; 
     phases CN; 
     from R5-12-47-3_node_292; 
     to R5-12-47-3_node_293; 
     mean_replacement_time 2; 
     current_limit 50000;// 50; 
     status CLOSED; 
} 

object fuse:9502 { 
     name R5-12-47-3_fuse_65; 
     phases BN; 
     from R5-12-47-3_node_296; 
     to R5-12-47-3_node_297; 
     mean_replacement_time 2; 
     current_limit 50000;// 50; 
     status CLOSED; 
} 

object fuse:9503 { 
     name R5-12-47-3_fuse_66; 
     phases AN; 
     from R5-12-47-3_node_302; 
     to R5-12-47-3_node_306; 
     mean_replacement_time 2; 
     current_limit 50000;// 50; 
     status CLOSED; 
} 

object fuse:9504 { 
     name R5-12-47-3_fuse_67; 
     phases CN; 
     from R5-12-47-3_node_308; 
     to R5-12-47-3_node_309; 
     mean_replacement_time 2; 
     current_limit 50000;// 50; 
     status CLOSED; 
} 

object fuse:9505 { 
     name R5-12-47-3_fuse_68; 
     phases CN; 
     from R5-12-47-3_node_315; 
     to R5-12-47-3_node_312; 
     mean_replacement_time 2; 
     current_limit 50000;// 50; 
     status CLOSED; 
} 

object fuse:9506 { 
     name R5-12-47-3_fuse_69; 
     phases BN; 
     from R5-12-47-3_node_325; 
     to R5-12-47-3_node_322; 
     mean_replacement_time 2; 
     current_limit 50000;// 100; 
     status CLOSED; 
} 

object fuse:9507 { 
     name R5-12-47-3_fuse_70; 
     phases AN; 
     from R5-12-47-3_node_331; 
     to R5-12-47-3_node_329; 
     mean_replacement_time 2; 
     current_limit 50000;// 50; 
     status CLOSED; 
} 

object fuse:9508 { 
     name R5-12-47-3_fuse_71; 
     phases BN; 
     from R5-12-47-3_node_335; 
     to R5-12-47-3_node_332; 
     mean_replacement_time 2; 
     current_limit 50000;// 50; 
     status CLOSED; 
} 

object fuse:9509 { 
     name R5-12-47-3_fuse_72; 
     phases AN; 
     from R5-12-47-3_node_340; 
     to R5-12-47-3_node_341; 
     mean_replacement_time 2; 
     current_limit 50000;// 30; 
     status CLOSED; 
} 

object fuse:9510 { 
     name R5-12-47-3_fuse_73; 
     phases CN; 
     from R5-12-47-3_node_304; 
     to R5-12-47-3_node_352; 
     mean_replacement_time 2; 
     current_limit 50000;// 50; 
     status CLOSED; 
} 

object fuse:9511 { 
     name R5-12-47-3_fuse_74; 
     phases CN; 
     from R5-12-47-3_node_364; 
     to R5-12-47-3_node_365; 
     mean_replacement_time 2; 
     current_limit 50000;// 30; 
     status CLOSED; 
} 

object fuse:9512 { 
     name R5-12-47-3_fuse_75; 
     phases BN; 
     from R5-12-47-3_node_370; 
     to R5-12-47-3_node_371; 
     mean_replacement_time 2; 
     current_limit 50000;// 50; 
     status CLOSED; 
} 

object fuse:9513 { 
     name R5-12-47-3_fuse_76; 
     phases AN; 
     from R5-12-47-3_node_248; 
     to R5-12-47-3_node_373; 
     mean_replacement_time 2; 
     current_limit 50000;// 30; 
     status CLOSED; 
} 

object fuse:9514 { 
     name R5-12-47-3_fuse_77; 
     phases CN; 
     from R5-12-47-3_node_385; 
     to R5-12-47-3_node_388; 
     mean_replacement_time 2; 
     current_limit 50000;// 50; 
     status CLOSED; 
} 

object fuse:9515 { 
     name R5-12-47-3_fuse_78; 
     phases AN; 
     from R5-12-47-3_node_406; 
     to R5-12-47-3_node_407; 
     mean_replacement_time 2; 
     current_limit 50000;// 50; 
     status CLOSED; 
} 

object fuse:9516 { 
     name R5-12-47-3_fuse_79; 
     phases AN; 
     from R5-12-47-3_node_408; 
     to R5-12-47-3_node_409; 
     mean_replacement_time 2; 
     current_limit 50000;// 50; 
     status CLOSED; 
} 

object fuse:9517 { 
     name R5-12-47-3_fuse_80; 
     phases CN; 
     from R5-12-47-3_node_418; 
     to R5-12-47-3_node_419; 
     mean_replacement_time 2; 
     current_limit 50000;// 50; 
     status CLOSED; 
} 

object fuse:9518 { 
     name R5-12-47-3_fuse_81; 
     phases CN; 
     from R5-12-47-3_node_439; 
     to R5-12-47-3_node_437; 
     mean_replacement_time 2; 
     current_limit 50000;// 50; 
     status CLOSED; 
} 

object fuse:9519 { 
     name R5-12-47-3_fuse_82; 
     phases CN; 
     from R5-12-47-3_node_503; 
     to R5-12-47-3_node_504; 
     mean_replacement_time 2; 
     current_limit 50000;// 50; 
     status CLOSED; 
} 

object fuse:9520 { 
     name R5-12-47-3_fuse_83; 
     phases AN; 
     from R5-12-47-3_node_509; 
     to R5-12-47-3_node_510; 
     mean_replacement_time 2; 
     current_limit 50000;// 50; 
     status CLOSED; 
} 

object fuse:9521 { 
     name R5-12-47-3_fuse_84; 
     phases CN; 
     from R5-12-47-3_node_508; 
     to R5-12-47-3_node_533; 
     mean_replacement_time 2; 
     current_limit 50000;// 50; 
     status CLOSED; 
} 

object fuse:9522 { 
     name R5-12-47-3_fuse_85; 
     phases AN; 
     from R5-12-47-3_node_523; 
     to R5-12-47-3_node_535; 
     mean_replacement_time 2; 
     current_limit 50000;// 50; 
     status CLOSED; 
} 

object fuse:9523 { 
     name R5-12-47-3_fuse_86; 
     phases BN; 
     from R5-12-47-3_node_586; 
     to R5-12-47-3_node_540; 
     mean_replacement_time 2; 
     current_limit 50000;// 30; 
     status CLOSED; 
} 

object fuse:9524 { 
     name R5-12-47-3_fuse_87; 
     phases AN; 
     from R5-12-47-3_node_545; 
     to R5-12-47-3_node_544; 
     mean_replacement_time 2; 
     current_limit 50000;// 50; 
     status CLOSED; 
} 

object fuse:9525 { 
     name R5-12-47-3_fuse_88; 
     phases BN; 
     from R5-12-47-3_node_573; 
     to R5-12-47-3_node_574; 
     mean_replacement_time 2; 
     current_limit 50000;// 30; 
     status CLOSED; 
} 

object fuse:9526 { 
     name R5-12-47-3_fuse_89; 
     phases BN; 
     from R5-12-47-3_node_1196; 
     to R5-12-47-3_node_581; 
     mean_replacement_time 2; 
     current_limit 50000;// 50; 
     status CLOSED; 
} 

object fuse:9527 { 
     name R5-12-47-3_fuse_90; 
     phases AN; 
     from R5-12-47-3_node_592; 
     to R5-12-47-3_node_598; 
     mean_replacement_time 2; 
     current_limit 50000;// 50; 
     status CLOSED; 
} 

object fuse:9528 { 
     name R5-12-47-3_fuse_91; 
     phases AN; 
     from R5-12-47-3_node_642; 
     to R5-12-47-3_node_639; 
     mean_replacement_time 2; 
     current_limit 50000;// 50; 
     status CLOSED; 
} 

object fuse:9529 { 
     name R5-12-47-3_fuse_92; 
     phases BN; 
     from R5-12-47-3_node_652; 
     to R5-12-47-3_node_650; 
     mean_replacement_time 2; 
     current_limit 50000;// 50; 
     status CLOSED; 
} 

object fuse:9530 { 
     name R5-12-47-3_fuse_93; 
     phases BN; 
     from R5-12-47-3_node_658; 
     to R5-12-47-3_node_656; 
     mean_replacement_time 2; 
     current_limit 50000;// 50; 
     status CLOSED; 
} 

object fuse:9531 { 
     name R5-12-47-3_fuse_94; 
     phases AN; 
     from R5-12-47-3_node_1065; 
     to R5-12-47-3_node_661; 
     mean_replacement_time 2; 
     current_limit 50000;// 20; 
     status CLOSED; 
} 

object fuse:9532 { 
     name R5-12-47-3_fuse_95; 
     phases AN; 
     from R5-12-47-3_node_694; 
     to R5-12-47-3_node_667; 
     mean_replacement_time 2; 
     current_limit 50000;// 50; 
     status CLOSED; 
} 

object fuse:9533 { 
     name R5-12-47-3_fuse_96; 
     phases CN; 
     from R5-12-47-3_node_704; 
     to R5-12-47-3_node_705; 
     mean_replacement_time 2; 
     current_limit 50000;// 20; 
     status CLOSED; 
} 

object fuse:9534 { 
     name R5-12-47-3_fuse_97; 
     phases CN; 
     from R5-12-47-3_node_1101; 
     to R5-12-47-3_node_716; 
     mean_replacement_time 2; 
     current_limit 50000;// 50; 
     status CLOSED; 
} 

object fuse:9535 { 
     name R5-12-47-3_fuse_98; 
     phases CN; 
     from R5-12-47-3_node_723; 
     to R5-12-47-3_node_724; 
     mean_replacement_time 2; 
     current_limit 50000;// 30; 
     status CLOSED; 
} 

object fuse:9536 { 
     name R5-12-47-3_fuse_99; 
     phases BN; 
     from R5-12-47-3_node_740; 
     to R5-12-47-3_node_737; 
     mean_replacement_time 2; 
     current_limit 50000;// 50; 
     status CLOSED; 
} 

object fuse:9537 { 
     name R5-12-47-3_fuse_100; 
     phases AN; 
     from R5-12-47-3_node_746; 
     to R5-12-47-3_node_743; 
     mean_replacement_time 2; 
     current_limit 50000;// 50; 
     status CLOSED; 
} 

object fuse:9538 { 
     name R5-12-47-3_fuse_101; 
     phases AN; 
     from R5-12-47-3_node_750; 
     to R5-12-47-3_node_751; 
     mean_replacement_time 2; 
     current_limit 50000;// 50; 
     status CLOSED; 
} 

object fuse:9539 { 
     name R5-12-47-3_fuse_102; 
     phases CN; 
     from R5-12-47-3_node_767; 
     to R5-12-47-3_node_765; 
     mean_replacement_time 2; 
     current_limit 50000;// 50; 
     status CLOSED; 
} 

object fuse:9540 { 
     name R5-12-47-3_fuse_103; 
     phases AN; 
     from R5-12-47-3_node_777; 
     to R5-12-47-3_node_778; 
     mean_replacement_time 2; 
     current_limit 50000;// 30; 
     status CLOSED; 
} 

object fuse:9541 { 
     name R5-12-47-3_fuse_104; 
     phases CN; 
     from R5-12-47-3_node_784; 
     to R5-12-47-3_node_783; 
     mean_replacement_time 2; 
     current_limit 50000;// 50; 
     status CLOSED; 
} 

object fuse:9542 { 
     name R5-12-47-3_fuse_105; 
     phases CN; 
     from R5-12-47-3_node_786; 
     to R5-12-47-3_node_785; 
     mean_replacement_time 2; 
     current_limit 50000;// 50; 
     status CLOSED; 
} 

object fuse:9543 { 
     name R5-12-47-3_fuse_106; 
     phases AN; 
     from R5-12-47-3_node_788; 
     to R5-12-47-3_node_787; 
     mean_replacement_time 2; 
     current_limit 50000;// 50; 
     status CLOSED; 
} 

object fuse:9544 { 
     name R5-12-47-3_fuse_107; 
     phases CN; 
     from R5-12-47-3_node_250; 
     to R5-12-47-3_node_804; 
     mean_replacement_time 2; 
     current_limit 50000;// 30; 
     status CLOSED; 
} 

object fuse:9545 { 
     name R5-12-47-3_fuse_108; 
     phases CN; 
     from R5-12-47-3_node_807; 
     to R5-12-47-3_node_809; 
     mean_replacement_time 2; 
     current_limit 50000;// 50; 
     status CLOSED; 
} 

object fuse:9546 { 
     name R5-12-47-3_fuse_109; 
     phases CN; 
     from R5-12-47-3_node_776; 
     to R5-12-47-3_node_811; 
     mean_replacement_time 2; 
     current_limit 50000;// 50; 
     status CLOSED; 
} 

object fuse:9547 { 
     name R5-12-47-3_fuse_110; 
     phases CN; 
     from R5-12-47-3_node_912; 
     to R5-12-47-3_node_849; 
     mean_replacement_time 2; 
     current_limit 50000;// 50; 
     status CLOSED; 
} 

object fuse:9548 { 
     name R5-12-47-3_fuse_111; 
     phases AN; 
     from R5-12-47-3_node_856; 
     to R5-12-47-3_node_857; 
     mean_replacement_time 2; 
     current_limit 50000;// 50; 
     status CLOSED; 
} 

object fuse:9549 { 
     name R5-12-47-3_fuse_112; 
     phases AN; 
     from R5-12-47-3_node_843; 
     to R5-12-47-3_node_859; 
     mean_replacement_time 2; 
     current_limit 50000;// 50; 
     status CLOSED; 
} 

object fuse:9550 { 
     name R5-12-47-3_fuse_113; 
     phases CN; 
     from R5-12-47-3_node_865; 
     to R5-12-47-3_node_867; 
     mean_replacement_time 2; 
     current_limit 50000;// 50; 
     status CLOSED; 
} 

object fuse:9551 { 
     name R5-12-47-3_fuse_114; 
     phases BN; 
     from R5-12-47-3_node_903; 
     to R5-12-47-3_node_884; 
     mean_replacement_time 2; 
     current_limit 50000;// 50; 
     status CLOSED; 
} 

object fuse:9552 { 
     name R5-12-47-3_fuse_115; 
     phases BN; 
     from R5-12-47-3_node_888; 
     to R5-12-47-3_node_890; 
     mean_replacement_time 2; 
     current_limit 50000;// 50; 
     status CLOSED; 
} 

object fuse:9553 { 
     name R5-12-47-3_fuse_116; 
     phases AN; 
     from R5-12-47-3_node_916; 
     to R5-12-47-3_node_911; 
     mean_replacement_time 2; 
     current_limit 50000;// 50; 
     status CLOSED; 
} 

object fuse:9554 { 
     name R5-12-47-3_fuse_117; 
     phases AN; 
     from R5-12-47-3_node_920; 
     to R5-12-47-3_node_917; 
     mean_replacement_time 2; 
     current_limit 50000;// 50; 
     status CLOSED; 
} 

object fuse:9555 { 
     name R5-12-47-3_fuse_118; 
     phases CN; 
     from R5-12-47-3_node_924; 
     to R5-12-47-3_node_925; 
     mean_replacement_time 2; 
     current_limit 50000;// 50; 
     status CLOSED; 
} 

object fuse:9556 { 
     name R5-12-47-3_fuse_119; 
     phases CN; 
     from R5-12-47-3_node_937; 
     to R5-12-47-3_node_938; 
     mean_replacement_time 2; 
     current_limit 50000;// 50; 
     status CLOSED; 
} 

object fuse:9557 { 
     name R5-12-47-3_fuse_120; 
     phases AN; 
     from R5-12-47-3_node_941; 
     to R5-12-47-3_node_942; 
     mean_replacement_time 2; 
     current_limit 50000;// 30; 
     status CLOSED; 
} 

object fuse:9558 { 
     name R5-12-47-3_fuse_121; 
     phases AN; 
     from R5-12-47-3_node_952; 
     to R5-12-47-3_node_953; 
     mean_replacement_time 2; 
     current_limit 50000;// 30; 
     status CLOSED; 
} 

object fuse:9559 { 
     name R5-12-47-3_fuse_122; 
     phases BN; 
     from R5-12-47-3_node_1008; 
     to R5-12-47-3_node_957; 
     mean_replacement_time 2; 
     current_limit 50000;// 50; 
     status CLOSED; 
} 

object fuse:9560 { 
     name R5-12-47-3_fuse_123; 
     phases BN; 
     from R5-12-47-3_node_1245; 
     to R5-12-47-3_node_964; 
     mean_replacement_time 2; 
     current_limit 50000;// 50; 
     status CLOSED; 
} 

object fuse:9561 { 
     name R5-12-47-3_fuse_124; 
     phases CN; 
     from R5-12-47-3_node_973; 
     to R5-12-47-3_node_975; 
     mean_replacement_time 2; 
     current_limit 50000;// 50; 
     status CLOSED; 
} 

object fuse:9562 { 
     name R5-12-47-3_fuse_125; 
     phases CN; 
     from R5-12-47-3_node_983; 
     to R5-12-47-3_node_977; 
     mean_replacement_time 2; 
     current_limit 50000;// 50; 
     status CLOSED; 
} 

object fuse:9563 { 
     name R5-12-47-3_fuse_126; 
     phases BN; 
     from R5-12-47-3_node_1005; 
     to R5-12-47-3_node_1006; 
     mean_replacement_time 2; 
     current_limit 50000;// 50; 
     status CLOSED; 
} 

object fuse:9564 { 
     name R5-12-47-3_fuse_127; 
     phases AN; 
     from R5-12-47-3_node_494; 
     to R5-12-47-3_node_1028; 
     mean_replacement_time 2; 
     current_limit 50000;// 50; 
     status CLOSED; 
} 

object fuse:9565 { 
     name R5-12-47-3_fuse_128; 
     phases AN; 
     from R5-12-47-3_node_1029; 
     to R5-12-47-3_node_1030; 
     mean_replacement_time 2; 
     current_limit 50000;// 50; 
     status CLOSED; 
} 

object fuse:9566 { 
     name R5-12-47-3_fuse_129; 
     phases AN; 
     from R5-12-47-3_node_1033; 
     to R5-12-47-3_node_1032; 
     mean_replacement_time 2; 
     current_limit 50000;// 50; 
     status CLOSED; 
} 

object fuse:9567 { 
     name R5-12-47-3_fuse_130; 
     phases AN; 
     from R5-12-47-3_node_1048; 
     to R5-12-47-3_node_1049; 
     mean_replacement_time 2; 
     current_limit 50000;// 50; 
     status CLOSED; 
} 

object fuse:9568 { 
     name R5-12-47-3_fuse_131; 
     phases BN; 
     from R5-12-47-3_node_1052; 
     to R5-12-47-3_node_1053; 
     mean_replacement_time 2; 
     current_limit 50000;// 30; 
     status CLOSED; 
} 

object fuse:9569 { 
     name R5-12-47-3_fuse_132; 
     phases BN; 
     from R5-12-47-3_node_1055; 
     to R5-12-47-3_node_1056; 
     mean_replacement_time 2; 
     current_limit 50000;// 40; 
     status CLOSED; 
} 

object fuse:9570 { 
     name R5-12-47-3_fuse_133; 
     phases BN; 
     from R5-12-47-3_node_205; 
     to R5-12-47-3_node_1061; 
     mean_replacement_time 2; 
     current_limit 50000;// 20; 
     status CLOSED; 
} 

object fuse:9571 { 
     name R5-12-47-3_fuse_134; 
     phases BN; 
     from R5-12-47-3_node_207; 
     to R5-12-47-3_node_1062; 
     mean_replacement_time 2; 
     current_limit 50000;// 20; 
     status CLOSED; 
} 

object fuse:9572 { 
     name R5-12-47-3_fuse_135; 
     phases CN; 
     from R5-12-47-3_node_673; 
     to R5-12-47-3_node_1066; 
     mean_replacement_time 2; 
     current_limit 50000;// 50; 
     status CLOSED; 
} 

object fuse:9573 { 
     name R5-12-47-3_fuse_136; 
     phases BN; 
     from R5-12-47-3_node_551; 
     to R5-12-47-3_node_1072; 
     mean_replacement_time 2; 
     current_limit 50000;// 20; 
     status CLOSED; 
} 

object fuse:9574 { 
     name R5-12-47-3_fuse_137; 
     phases CN; 
     from R5-12-47-3_node_972; 
     to R5-12-47-3_node_1119; 
     mean_replacement_time 2; 
     current_limit 50000;// 50; 
     status CLOSED; 
} 

object fuse:9575 { 
     name R5-12-47-3_fuse_138; 
     phases BN; 
     from R5-12-47-3_node_1127; 
     to R5-12-47-3_node_1125; 
     mean_replacement_time 2; 
     current_limit 50000;// 50; 
     status CLOSED; 
} 

object fuse:9576 { 
     name R5-12-47-3_fuse_139; 
     phases CN; 
     from R5-12-47-3_node_1129; 
     to R5-12-47-3_node_1130; 
     mean_replacement_time 2; 
     current_limit 50000;// 50; 
     status CLOSED; 
} 

object fuse:9577 { 
     name R5-12-47-3_fuse_140; 
     phases CN; 
     from R5-12-47-3_node_1165; 
     to R5-12-47-3_node_1166; 
     mean_replacement_time 2; 
     current_limit 50000;// 50; 
     status CLOSED; 
} 

object fuse:9578 { 
     name R5-12-47-3_fuse_141; 
     phases CN; 
     from R5-12-47-3_node_1168; 
     to R5-12-47-3_node_1169; 
     mean_replacement_time 2; 
     current_limit 50000;// 50; 
     status CLOSED; 
} 

object fuse:9579 { 
     name R5-12-47-3_fuse_142; 
     phases BN; 
     from R5-12-47-3_node_1186; 
     to R5-12-47-3_node_1185; 
     mean_replacement_time 2; 
     current_limit 50000;// 50; 
     status CLOSED; 
} 

object fuse:9580 { 
     name R5-12-47-3_fuse_143; 
     phases CN; 
     from R5-12-47-3_node_1189; 
     to R5-12-47-3_node_1190; 
     mean_replacement_time 2; 
     current_limit 50000;// 50; 
     status CLOSED; 
} 

object fuse:9581 { 
     name R5-12-47-3_fuse_144; 
     phases AN; 
     from R5-12-47-3_node_1192; 
     to R5-12-47-3_node_1193; 
     mean_replacement_time 2; 
     current_limit 50000;// 50; 
     status CLOSED; 
} 

object fuse:9582 { 
     name R5-12-47-3_fuse_145; 
     phases AN; 
     from R5-12-47-3_node_945; 
     to R5-12-47-3_node_1194; 
     mean_replacement_time 2; 
     current_limit 50000;// 50; 
     status CLOSED; 
} 

object fuse:9583 { 
     name R5-12-47-3_fuse_146; 
     phases CN; 
     from R5-12-47-3_node_910; 
     to R5-12-47-3_node_1199; 
     mean_replacement_time 2; 
     current_limit 50000;// 30; 
     status CLOSED; 
} 

object fuse:9584 { 
     name R5-12-47-3_fuse_147; 
     phases BCN; 
     from R5-12-47-3_node_891; 
     to R5-12-47-3_node_1203; 
     mean_replacement_time 2; 
     current_limit 50000;// 25; 
     status CLOSED; 
} 

object fuse:9585 { 
     name R5-12-47-3_fuse_148; 
     phases BN; 
     from R5-12-47-3_node_1205; 
     to R5-12-47-3_node_1206; 
     mean_replacement_time 2; 
     current_limit 50000;// 10; 
     status CLOSED; 
} 

object fuse:9586 { 
     name R5-12-47-3_fuse_149; 
     phases AN; 
     from R5-12-47-3_node_1207; 
     to R5-12-47-3_node_1208; 
     mean_replacement_time 2; 
     current_limit 50000;// 50; 
     status CLOSED; 
} 

object fuse:9587 { 
     name R5-12-47-3_fuse_150; 
     phases AN; 
     from R5-12-47-3_node_918; 
     to R5-12-47-3_node_1212; 
     mean_replacement_time 2; 
     current_limit 50000;// 50; 
     status CLOSED; 
} 

object fuse:9588 { 
     name R5-12-47-3_fuse_151; 
     phases CN; 
     from R5-12-47-3_node_1213; 
     to R5-12-47-3_node_1214; 
     mean_replacement_time 2; 
     current_limit 50000;// 50; 
     status CLOSED; 
} 

object fuse:9589 { 
     name R5-12-47-3_fuse_152; 
     phases BN; 
     from R5-12-47-3_node_1229; 
     to R5-12-47-3_node_1230; 
     mean_replacement_time 2; 
     current_limit 50000;// 10; 
     status CLOSED; 
} 

object fuse:9590 { 
     name R5-12-47-3_fuse_153; 
     phases ABCN; 
     from R5-12-47-3_node_1233; 
     to R5-12-47-3_node_1234; 
     mean_replacement_time 2; 
     current_limit 50000;// 15; 
     status CLOSED; 
} 

object fuse:9591 { 
     name R5-12-47-3_fuse_154; 
     phases BN; 
     from R5-12-47-3_node_1240; 
     to R5-12-47-3_node_1241; 
     mean_replacement_time 2; 
     current_limit 50000;// 30; 
     status CLOSED; 
} 

object fuse:9592 { 
     name R5-12-47-3_fuse_155; 
     phases CN; 
     from R5-12-47-3_node_1242; 
     to R5-12-47-3_node_1243; 
     mean_replacement_time 2; 
     current_limit 50000;// 30; 
     status CLOSED; 
} 

object fuse:9593 { 
     name R5-12-47-3_fuse_156; 
     phases AN; 
     from R5-12-47-3_node_1249; 
     to R5-12-47-3_node_1250; 
     mean_replacement_time 2; 
     current_limit 50000;// 25; 
     status CLOSED; 
} 

object fuse:9594 { 
     name R5-12-47-3_fuse_157; 
     phases BN; 
     from R5-12-47-3_node_268; 
     to R5-12-47-3_node_1257; 
     mean_replacement_time 2; 
     current_limit 50000;// 50; 
     status CLOSED; 
} 

object fuse:9595 { 
     name R5-12-47-3_fuse_158; 
     phases CN; 
     from R5-12-47-3_node_369; 
     to R5-12-47-3_node_1287; 
     mean_replacement_time 2; 
     current_limit 50000;// 50; 
     status CLOSED; 
} 

object fuse:9596 { 
     name R5-12-47-3_fuse_159; 
     phases CN; 
     from R5-12-47-3_node_398; 
     to R5-12-47-3_node_1303; 
     mean_replacement_time 2; 
     current_limit 50000;// 30; 
     status CLOSED; 
} 

object fuse:9597 { 
     name R5-12-47-3_fuse_160; 
     phases BN; 
     from R5-12-47-3_node_440; 
     to R5-12-47-3_node_1305; 
     mean_replacement_time 2; 
     current_limit 50000;// 50; 
     status CLOSED; 
} 

object fuse:9598 { 
     name R5-12-47-3_fuse_161; 
     phases CN; 
     from R5-12-47-3_node_421; 
     to R5-12-47-3_node_1306; 
     mean_replacement_time 2; 
     current_limit 50000;// 50; 
     status CLOSED; 
} 

object fuse:9599 { 
     name R5-12-47-3_fuse_162; 
     phases AN; 
     from R5-12-47-3_node_566; 
     to R5-12-47-3_node_1343; 
     mean_replacement_time 2; 
     current_limit 50000;// 30; 
     status CLOSED; 
} 

object fuse:9600 { 
     name R5-12-47-3_fuse_163; 
     phases BN; 
     from R5-12-47-3_node_170; 
     to R5-12-47-3_node_1346; 
     mean_replacement_time 2; 
     current_limit 50000;// 50; 
     status CLOSED; 
} 

object fuse:9601 { 
     name R5-12-47-3_fuse_164; 
     phases BN; 
     from R5-12-47-3_node_631; 
     to R5-12-47-3_node_1349; 
     mean_replacement_time 2; 
     current_limit 50000;// 30; 
     status CLOSED; 
} 

object fuse:9602 { 
     name R5-12-47-3_fuse_165; 
     phases AN; 
     from R5-12-47-3_node_606; 
     to R5-12-47-3_node_1354; 
     mean_replacement_time 2; 
     current_limit 50000;// 50; 
     status CLOSED; 
} 

object fuse:9603 { 
     name R5-12-47-3_fuse_166; 
     phases AN; 
     from R5-12-47-3_node_603; 
     to R5-12-47-3_node_1362; 
     mean_replacement_time 2; 
     current_limit 50000;// 50; 
     status CLOSED; 
} 

object fuse:9604 { 
     name R5-12-47-3_fuse_167; 
     phases CN; 
     from R5-12-47-3_node_683; 
     to R5-12-47-3_node_1364; 
     mean_replacement_time 2; 
     current_limit 50000;// 30; 
     status CLOSED; 
} 

object fuse:9605 { 
     name R5-12-47-3_fuse_168; 
     phases CN; 
     from R5-12-47-3_node_708; 
     to R5-12-47-3_node_1376; 
     mean_replacement_time 2; 
     current_limit 50000;// 50; 
     status CLOSED; 
} 

object fuse:9606 { 
     name R5-12-47-3_fuse_169; 
     phases BN; 
     from R5-12-47-3_node_736; 
     to R5-12-47-3_node_1394; 
     mean_replacement_time 2; 
     current_limit 50000;// 30; 
     status CLOSED; 
} 

object fuse:9607 { 
     name R5-12-47-3_fuse_170; 
     phases CN; 
     from R5-12-47-3_node_839; 
     to R5-12-47-3_node_1407; 
     mean_replacement_time 2; 
     current_limit 50000;// 50; 
     status CLOSED; 
} 

object fuse:9608 { 
     name R5-12-47-3_fuse_171; 
     phases AN; 
     from R5-12-47-3_node_855; 
     to R5-12-47-3_node_1410; 
     mean_replacement_time 2; 
     current_limit 50000;// 50; 
     status CLOSED; 
} 

object fuse:9609 { 
     name R5-12-47-3_fuse_172; 
     phases CN; 
     from R5-12-47-3_node_869; 
     to R5-12-47-3_node_1415; 
     mean_replacement_time 2; 
     current_limit 50000;// 20; 
     status CLOSED; 
} 

object fuse:9610 { 
     name R5-12-47-3_fuse_173; 
     phases CN; 
     from R5-12-47-3_node_935; 
     to R5-12-47-3_node_1425; 
     mean_replacement_time 2; 
     current_limit 50000;// 50; 
     status CLOSED; 
} 

object fuse:9611 { 
     name R5-12-47-3_fuse_174; 
     phases CN; 
     from R5-12-47-3_node_1041; 
     to R5-12-47-3_node_1431; 
     mean_replacement_time 2; 
     current_limit 50000;// 50; 
     status CLOSED; 
} 

object fuse:9612 { 
     name R5-12-47-3_fuse_175; 
     phases AN; 
     from R5-12-47-3_node_346; 
     to R5-12-47-3_node_1433; 
     mean_replacement_time 2; 
     current_limit 50000;// 30; 
     status CLOSED; 
} 

object fuse:9613 { 
     name R5-12-47-3_fuse_176; 
     phases AN; 
     from R5-12-47-3_node_940; 
     to R5-12-47-3_node_1435; 
     mean_replacement_time 2; 
     current_limit 50000;// 50; 
     status CLOSED; 
} 

object fuse:9614 { 
     name R5-12-47-3_fuse_177; 
     phases BN; 
     from R5-12-47-3_node_962; 
     to R5-12-47-3_node_1440; 
     mean_replacement_time 2; 
     current_limit 50000;// 50; 
     status CLOSED; 
} 

object fuse:9615 { 
     name R5-12-47-3_fuse_178; 
     phases AN; 
     from R5-12-47-3_node_949; 
     to R5-12-47-3_node_1449; 
     mean_replacement_time 2; 
     current_limit 50000;// 50; 
     status CLOSED; 
} 

object fuse:9616 { 
     name R5-12-47-3_fuse_179; 
     phases BN; 
     from R5-12-47-3_node_1000; 
     to R5-12-47-3_node_1458; 
     mean_replacement_time 2; 
     current_limit 50000;// 50; 
     status CLOSED; 
} 

object fuse:9617 { 
     name R5-12-47-3_fuse_180; 
     phases BN; 
     from R5-12-47-3_node_998; 
     to R5-12-47-3_node_1460; 
     mean_replacement_time 2; 
     current_limit 50000;// 50; 
     status CLOSED; 
} 

object fuse:9618 { 
     name R5-12-47-3_fuse_181; 
     phases BN; 
     from R5-12-47-3_node_993; 
     to R5-12-47-3_node_1461; 
     mean_replacement_time 2; 
     current_limit 50000;// 50; 
     status CLOSED; 
} 

object fuse:9619 { 
     name R5-12-47-3_fuse_182; 
     phases CN; 
     from R5-12-47-3_node_720; 
     to R5-12-47-3_node_1465; 
     mean_replacement_time 2; 
     current_limit 50000;// 30; 
     status CLOSED; 
} 

object line_configuration:38 { 
     conductor_B overhead_line_conductor:2; 
     conductor_N overhead_line_conductor:2; 
     spacing line_spacing:11; 
} 

object line_configuration:39 { 
     conductor_A overhead_line_conductor:2; 
     conductor_B overhead_line_conductor:2; 
     conductor_C overhead_line_conductor:2; 
     conductor_N overhead_line_conductor:2; 
     spacing line_spacing:12; 
} 

object line_configuration:40 { 
     conductor_C overhead_line_conductor:3; 
     conductor_N overhead_line_conductor:3; 
     spacing line_spacing:13; 
} 

object line_configuration:41 { 
     conductor_C overhead_line_conductor:2; 
     conductor_N overhead_line_conductor:2; 
     spacing line_spacing:13; 
} 

object line_configuration:42 { 
     conductor_B overhead_line_conductor:3; 
     conductor_N overhead_line_conductor:3; 
     spacing line_spacing:11; 
} 

object line_configuration:43 { 
     conductor_A underground_line_conductor:4; 
     conductor_N underground_line_conductor:4; 
     spacing line_spacing:14; 
} 

object line_configuration:44 { 
     conductor_A overhead_line_conductor:2; 
     conductor_B overhead_line_conductor:2; 
     conductor_C overhead_line_conductor:2; 
     conductor_N overhead_line_conductor:2; 
     spacing line_spacing:15; 
} 

object line_configuration:45 { 
     conductor_B underground_line_conductor:4; 
     conductor_N underground_line_conductor:4; 
     spacing line_spacing:16; 
} 

object line_configuration:46 { 
     conductor_A overhead_line_conductor:3; 
     conductor_N overhead_line_conductor:3; 
     spacing line_spacing:17; 
} 

object line_configuration:47 { 
     conductor_A underground_line_conductor:5; 
     conductor_N underground_line_conductor:5; 
     spacing line_spacing:14; 
} 

object line_configuration:48 { 
     conductor_A underground_line_conductor:5; 
     conductor_C underground_line_conductor:5; 
     conductor_N underground_line_conductor:5; 
     spacing line_spacing:18; 
} 

object line_configuration:49 { 
     conductor_B underground_line_conductor:5; 
     conductor_N underground_line_conductor:5; 
     spacing line_spacing:16; 
} 

object line_configuration:50 { 
     conductor_A underground_line_conductor:5; 
     conductor_B underground_line_conductor:5; 
     conductor_C underground_line_conductor:5; 
     conductor_N underground_line_conductor:5; 
     spacing line_spacing:19; 
} 

object line_configuration:51 { 
     conductor_A overhead_line_conductor:6; 
     conductor_B overhead_line_conductor:6; 
     conductor_C overhead_line_conductor:6; 
     conductor_N overhead_line_conductor:6; 
     spacing line_spacing:20; 
} 

object line_configuration:52 { 
     conductor_C underground_line_conductor:4; 
     conductor_N underground_line_conductor:4; 
     spacing line_spacing:21; 
} 

object line_configuration:53 { 
     conductor_C underground_line_conductor:5; 
     conductor_N underground_line_conductor:5; 
     spacing line_spacing:21; 
} 

object line_configuration:54 { 
     conductor_A overhead_line_conductor:2; 
     conductor_N overhead_line_conductor:2; 
     spacing line_spacing:17; 
} 

object line_configuration:55 { 
     conductor_A overhead_line_conductor:2; 
     conductor_C overhead_line_conductor:2; 
     conductor_N overhead_line_conductor:2; 
     spacing line_spacing:22; 
} 

object line_configuration:56 { 
     conductor_A overhead_line_conductor:7; 
     conductor_B overhead_line_conductor:7; 
     conductor_C overhead_line_conductor:7; 
     conductor_N overhead_line_conductor:7; 
     spacing line_spacing:23; 
} 

object line_configuration:57 { 
     conductor_A overhead_line_conductor:7; 
     conductor_B overhead_line_conductor:7; 
     conductor_C overhead_line_conductor:7; 
     conductor_N overhead_line_conductor:7; 
     spacing line_spacing:20; 
} 

object line_configuration:58 { 
     conductor_C overhead_line_conductor:8; 
     conductor_N overhead_line_conductor:8; 
     spacing line_spacing:13; 
} 

object line_configuration:59 { 
     conductor_C overhead_line_conductor:2; 
     conductor_N overhead_line_conductor:2; 
     spacing line_spacing:13; 
} 

object line_configuration:60 { 
     conductor_B overhead_line_conductor:3; 
     conductor_N overhead_line_conductor:3; 
     spacing line_spacing:24; 
} 

object line_configuration:61 { 
     conductor_A overhead_line_conductor:3; 
     conductor_B overhead_line_conductor:3; 
     conductor_C overhead_line_conductor:3; 
     conductor_N overhead_line_conductor:3; 
     spacing line_spacing:15; 
} 

object line_configuration:62 { 
     conductor_A overhead_line_conductor:2; 
     conductor_N overhead_line_conductor:2; 
     spacing line_spacing:17; 
} 

object line_configuration:63 { 
     conductor_B overhead_line_conductor:2; 
     conductor_N overhead_line_conductor:2; 
     spacing line_spacing:11; 
} 

object line_configuration:64 { 
     conductor_B overhead_line_conductor:6; 
     conductor_N overhead_line_conductor:6; 
     spacing line_spacing:24; 
} 

object line_configuration:65 { 
     conductor_A overhead_line_conductor:3; 
     conductor_B overhead_line_conductor:3; 
     conductor_C overhead_line_conductor:3; 
     conductor_N overhead_line_conductor:3; 
     spacing line_spacing:23; 
} 

object line_configuration:66 { 
     conductor_A overhead_line_conductor:2; 
     conductor_B overhead_line_conductor:2; 
     conductor_N overhead_line_conductor:2; 
     spacing line_spacing:25; 
} 

object line_configuration:67 { 
     conductor_A overhead_line_conductor:2; 
     conductor_N overhead_line_conductor:2; 
     spacing line_spacing:26; 
} 

object line_configuration:68 { 
     conductor_A overhead_line_conductor:2; 
     conductor_B overhead_line_conductor:2; 
     conductor_C overhead_line_conductor:2; 
     conductor_N overhead_line_conductor:2; 
     spacing line_spacing:23; 
} 

object line_configuration:69 { 
     conductor_A overhead_line_conductor:3; 
     conductor_B overhead_line_conductor:3; 
     conductor_C overhead_line_conductor:3; 
     conductor_N overhead_line_conductor:3; 
     spacing line_spacing:12; 
} 

object line_configuration:70 { 
     conductor_A overhead_line_conductor:3; 
     conductor_B overhead_line_conductor:3; 
     conductor_C overhead_line_conductor:3; 
     conductor_N overhead_line_conductor:3; 
     spacing line_spacing:20; 
} 

object line_configuration:71 { 
     conductor_A overhead_line_conductor:3; 
     conductor_B overhead_line_conductor:3; 
     conductor_C overhead_line_conductor:3; 
     conductor_N overhead_line_conductor:3; 
     spacing line_spacing:27; 
} 

object line_configuration:72 { 
     conductor_A overhead_line_conductor:3; 
     conductor_B overhead_line_conductor:3; 
     conductor_C overhead_line_conductor:3; 
     conductor_N overhead_line_conductor:3; 
     spacing line_spacing:28; 
} 

object line_configuration:73 { 
     conductor_C overhead_line_conductor:3; 
     conductor_N overhead_line_conductor:3; 
     spacing line_spacing:29; 
} 

object line_configuration:74 { 
     conductor_C overhead_line_conductor:2; 
     conductor_N overhead_line_conductor:2; 
     spacing line_spacing:29; 
} 

object line_configuration:75 { 
     conductor_A overhead_line_conductor:9; 
     conductor_B overhead_line_conductor:9; 
     conductor_N overhead_line_conductor:9; 
     spacing line_spacing:30; 
} 

object line_configuration:76 { 
     conductor_A overhead_line_conductor:3; 
     conductor_B overhead_line_conductor:3; 
     conductor_N overhead_line_conductor:3; 
     spacing line_spacing:31; 
} 

object line_configuration:77 { 
     conductor_A overhead_line_conductor:3; 
     conductor_B overhead_line_conductor:3; 
     conductor_N overhead_line_conductor:3; 
     spacing line_spacing:32; 
} 

object line_configuration:78 { 
     conductor_A overhead_line_conductor:9; 
     conductor_B overhead_line_conductor:9; 
     conductor_N overhead_line_conductor:9; 
     spacing line_spacing:31; 
} 

object line_configuration:79 { 
     conductor_B overhead_line_conductor:9; 
     conductor_N overhead_line_conductor:9; 
     spacing line_spacing:24; 
} 

object line_configuration:80 { 
     conductor_B overhead_line_conductor:9; 
     conductor_N overhead_line_conductor:9; 
     spacing line_spacing:11; 
} 

object line_configuration:81 { 
     conductor_B overhead_line_conductor:2; 
     conductor_N overhead_line_conductor:2; 
     spacing line_spacing:24; 
} 

object line_configuration:82 { 
     conductor_A overhead_line_conductor:3; 
     conductor_C overhead_line_conductor:3; 
     conductor_N overhead_line_conductor:3; 
     spacing line_spacing:22; 
} 

object line_configuration:83 { 
     conductor_A overhead_line_conductor:3; 
     conductor_C overhead_line_conductor:3; 
     conductor_N overhead_line_conductor:3; 
     spacing line_spacing:33; 
} 

object line_configuration:84 { 
     conductor_A overhead_line_conductor:2; 
     conductor_N overhead_line_conductor:2; 
     spacing line_spacing:26; 
} 

object line_configuration:85 { 
     conductor_A overhead_line_conductor:3; 
     conductor_N overhead_line_conductor:3; 
     spacing line_spacing:26; 
} 

object line_configuration:86 { 
     conductor_A overhead_line_conductor:8; 
     conductor_B overhead_line_conductor:8; 
     conductor_C overhead_line_conductor:8; 
     conductor_N overhead_line_conductor:8; 
     spacing line_spacing:34; 
} 

object line_configuration:87 { 
     conductor_B overhead_line_conductor:3; 
     conductor_C overhead_line_conductor:3; 
     conductor_N overhead_line_conductor:3; 
     spacing line_spacing:35; 
} 

object line_configuration:88 { 
     conductor_B overhead_line_conductor:3; 
     conductor_C overhead_line_conductor:3; 
     conductor_N overhead_line_conductor:3; 
     spacing line_spacing:36; 
} 

object line_configuration:89 { 
     conductor_C overhead_line_conductor:7; 
     conductor_N overhead_line_conductor:7; 
     spacing line_spacing:13; 
} 

object line_configuration:90 { 
     conductor_A overhead_line_conductor:2; 
     conductor_B overhead_line_conductor:2; 
     conductor_C overhead_line_conductor:2; 
     conductor_N overhead_line_conductor:2; 
     spacing line_spacing:20; 
} 

object line_configuration:91 { 
     conductor_A overhead_line_conductor:6; 
     conductor_N overhead_line_conductor:6; 
     spacing line_spacing:26; 
} 

object line_configuration:92 { 
     conductor_C overhead_line_conductor:10; 
     conductor_N overhead_line_conductor:10; 
     spacing line_spacing:37; 
} 

object line_configuration:93 { 
     conductor_C overhead_line_conductor:2; 
     conductor_N overhead_line_conductor:2; 
     spacing line_spacing:37; 
} 

object line_configuration:94 { 
     conductor_A underground_line_conductor:4; 
     conductor_B underground_line_conductor:4; 
     conductor_C underground_line_conductor:4; 
     conductor_N underground_line_conductor:4; 
     spacing line_spacing:19; 
} 

object line_spacing:11 { 
     distance_BN 69.99999999996 in; 
} 

object line_spacing:12 { 
     distance_AB 48.0 in; 
     distance_BC 48.0 in; 
     distance_AC 48.0 in; 
     distance_AN 36.0 in; 
     distance_BN 36.0 in; 
     distance_CN 36.0 in; 
} 

object line_spacing:13 { 
     distance_CN 69.99999999996 in; 
} 

object line_spacing:14 { 
     distance_AN 360.0 in; 
} 

...